[TITLE]
;;Project Title/Notes

[OPTIONS]
;;Option            	Value
FLOW_UNITS          	CMS
INFILTRATION        	GREEN_AMPT
FLOW_ROUTING        	DYNWAVE
LINK_OFFSETS        	ELEVATION
MIN_SLOPE           	0
ALLOW_PONDING       	YES
SKIP_STEADY_STATE   	NO

START_DATE          	08/10/2019
START_TIME          	00:00:00
REPORT_START_DATE   	08/10/2019
REPORT_START_TIME   	00:00:00
END_DATE            	08/11/2019
END_TIME            	23:59:55
SWEEP_START         	01/01
SWEEP_END           	12/31
DRY_DAYS            	0
REPORT_STEP         	00:05:00
WET_STEP            	00:05:00
DRY_STEP            	00:05:00
ROUTING_STEP        	0:00:05 
RULE_STEP           	00:00:00

INERTIAL_DAMPING    	PARTIAL
NORMAL_FLOW_LIMITED 	BOTH
FORCE_MAIN_EQUATION 	H-W
VARIABLE_STEP       	0.75
LENGTHENING_STEP    	0
MIN_SURFAREA        	1.167
MAX_TRIALS          	8
HEAD_TOLERANCE      	0.0015
SYS_FLOW_TOL        	5
LAT_FLOW_TOL        	5
MINIMUM_STEP        	0.5
THREADS             	12

[FILES]
;;Interfacing Files
USE	RAINFALL	"C:\Users\everett\Google Drive\02_phd\00_projects_major\02_swmm_calibration\models\fourteenmile\data\fourteenmilecreek.rff"

[EVAPORATION]
;;Data Source   	Parameters
;;--------------	----------------
CONSTANT        	0.0
DRY_ONLY        	NO

[RAINGAGES]
;;Name          	Format   	Interval	SCF     	Source    
;;--------------	---------	------	------	----------
S101            	VOLUME   	0:05    	1       	FILE      	"C:\Users\everett\Google Drive\02_phd\00_projects_major\02_swmm_calibration\models\fourteenmile\data\ObservedRainfall_new.dat"	S101      	MM   
S102            	VOLUME   	0:05    	1       	FILE      	"C:\Users\everett\Google Drive\02_phd\00_projects_major\02_swmm_calibration\models\fourteenmile\data\ObservedRainfall_new.dat"	S102      	MM   
S103            	VOLUME   	0:05    	1       	FILE      	"C:\Users\everett\Google Drive\02_phd\00_projects_major\02_swmm_calibration\models\fourteenmile\data\ObservedRainfall_new.dat"	S103      	MM   
S104            	VOLUME   	0:05    	1       	FILE      	"C:\Users\everett\Google Drive\02_phd\00_projects_major\02_swmm_calibration\models\fourteenmile\data\ObservedRainfall_new.dat"	S104      	MM   
S105            	VOLUME   	0:05    	1       	FILE      	"C:\Users\everett\Google Drive\02_phd\00_projects_major\02_swmm_calibration\models\fourteenmile\data\ObservedRainfall_new.dat"	S105      	MM   
S106            	VOLUME   	0:05    	1       	FILE      	"C:\Users\everett\Google Drive\02_phd\00_projects_major\02_swmm_calibration\models\fourteenmile\data\ObservedRainfall_new.dat"	S106      	MM   
S107            	VOLUME   	0:05    	1       	FILE      	"C:\Users\everett\Google Drive\02_phd\00_projects_major\02_swmm_calibration\models\fourteenmile\data\ObservedRainfall_new.dat"	S107      	MM   
S108            	VOLUME   	0:05    	1       	FILE      	"C:\Users\everett\Google Drive\02_phd\00_projects_major\02_swmm_calibration\models\fourteenmile\data\ObservedRainfall_new.dat"	S108      	MM   
S109            	VOLUME   	0:05    	1       	FILE      	"C:\Users\everett\Google Drive\02_phd\00_projects_major\02_swmm_calibration\models\fourteenmile\data\ObservedRainfall_new.dat"	S109      	MM   
S110            	VOLUME   	0:05    	1       	FILE      	"C:\Users\everett\Google Drive\02_phd\00_projects_major\02_swmm_calibration\models\fourteenmile\data\ObservedRainfall_new.dat"	S110      	MM   
S111            	VOLUME   	0:05    	1       	FILE      	"C:\Users\everett\Google Drive\02_phd\00_projects_major\02_swmm_calibration\models\fourteenmile\data\ObservedRainfall_new.dat"	S111      	MM   
S112            	VOLUME   	0:05    	1       	FILE      	"C:\Users\everett\Google Drive\02_phd\00_projects_major\02_swmm_calibration\models\fourteenmile\data\ObservedRainfall_new.dat"	S112      	MM   
S113            	VOLUME   	0:05    	1       	FILE      	"C:\Users\everett\Google Drive\02_phd\00_projects_major\02_swmm_calibration\models\fourteenmile\data\ObservedRainfall_new.dat"	S113      	MM   
S151            	VOLUME   	0:05    	1       	FILE      	"C:\Users\everett\Google Drive\02_phd\00_projects_major\02_swmm_calibration\models\fourteenmile\data\ObservedRainfall_new.dat"	S151      	MM   
S152            	VOLUME   	0:05    	1       	FILE      	"C:\Users\everett\Google Drive\02_phd\00_projects_major\02_swmm_calibration\models\fourteenmile\data\ObservedRainfall_new.dat"	S152      	MM   
S153            	VOLUME   	0:05    	1       	FILE      	"C:\Users\everett\Google Drive\02_phd\00_projects_major\02_swmm_calibration\models\fourteenmile\data\ObservedRainfall_new.dat"	S153      	MM   
S154_1          	VOLUME   	0:05    	1       	FILE      	"C:\Users\everett\Google Drive\02_phd\00_projects_major\02_swmm_calibration\models\fourteenmile\data\ObservedRainfall_new.dat"	S154_1    	MM   
S154_2          	VOLUME   	0:05    	1       	FILE      	"C:\Users\everett\Google Drive\02_phd\00_projects_major\02_swmm_calibration\models\fourteenmile\data\ObservedRainfall_new.dat"	S154_2    	MM   
S155            	VOLUME   	0:05    	1       	FILE      	"C:\Users\everett\Google Drive\02_phd\00_projects_major\02_swmm_calibration\models\fourteenmile\data\ObservedRainfall_new.dat"	S155      	MM   
S156            	VOLUME   	0:05    	1       	FILE      	"C:\Users\everett\Google Drive\02_phd\00_projects_major\02_swmm_calibration\models\fourteenmile\data\ObservedRainfall_new.dat"	S156      	MM   
S157            	VOLUME   	0:05    	1       	FILE      	"C:\Users\everett\Google Drive\02_phd\00_projects_major\02_swmm_calibration\models\fourteenmile\data\ObservedRainfall_new.dat"	S157      	MM   
S158            	VOLUME   	0:05    	1       	FILE      	"C:\Users\everett\Google Drive\02_phd\00_projects_major\02_swmm_calibration\models\fourteenmile\data\ObservedRainfall_new.dat"	S158      	MM   
S159            	VOLUME   	0:05    	1       	FILE      	"C:\Users\everett\Google Drive\02_phd\00_projects_major\02_swmm_calibration\models\fourteenmile\data\ObservedRainfall_new.dat"	S159      	MM   
S160            	VOLUME   	0:05    	1       	FILE      	"C:\Users\everett\Google Drive\02_phd\00_projects_major\02_swmm_calibration\models\fourteenmile\data\ObservedRainfall_new.dat"	S160      	MM   
S161_1          	VOLUME   	0:05    	1       	FILE      	"C:\Users\everett\Google Drive\02_phd\00_projects_major\02_swmm_calibration\models\fourteenmile\data\ObservedRainfall_new.dat"	S161_1    	MM   
S161_2          	VOLUME   	0:05    	1       	FILE      	"C:\Users\everett\Google Drive\02_phd\00_projects_major\02_swmm_calibration\models\fourteenmile\data\ObservedRainfall_new.dat"	S161_2    	MM   
S162            	VOLUME   	0:05    	1       	FILE      	"C:\Users\everett\Google Drive\02_phd\00_projects_major\02_swmm_calibration\models\fourteenmile\data\ObservedRainfall_new.dat"	S162      	MM   
S163            	VOLUME   	0:05    	1       	FILE      	"C:\Users\everett\Google Drive\02_phd\00_projects_major\02_swmm_calibration\models\fourteenmile\data\ObservedRainfall_new.dat"	S163      	MM   
S164            	VOLUME   	0:05    	1       	FILE      	"C:\Users\everett\Google Drive\02_phd\00_projects_major\02_swmm_calibration\models\fourteenmile\data\ObservedRainfall_new.dat"	S164      	MM   
S165            	VOLUME   	0:05    	1       	FILE      	"C:\Users\everett\Google Drive\02_phd\00_projects_major\02_swmm_calibration\models\fourteenmile\data\ObservedRainfall_new.dat"	S165      	MM   
S166            	VOLUME   	0:05    	1       	FILE      	"C:\Users\everett\Google Drive\02_phd\00_projects_major\02_swmm_calibration\models\fourteenmile\data\ObservedRainfall_new.dat"	S166      	MM   
S167            	VOLUME   	0:05    	1       	FILE      	"C:\Users\everett\Google Drive\02_phd\00_projects_major\02_swmm_calibration\models\fourteenmile\data\ObservedRainfall_new.dat"	S167      	MM   
S171            	VOLUME   	0:05    	1       	FILE      	"C:\Users\everett\Google Drive\02_phd\00_projects_major\02_swmm_calibration\models\fourteenmile\data\ObservedRainfall_new.dat"	S171      	MM   
S172            	VOLUME   	0:05    	1       	FILE      	"C:\Users\everett\Google Drive\02_phd\00_projects_major\02_swmm_calibration\models\fourteenmile\data\ObservedRainfall_new.dat"	S172      	MM   
S180            	VOLUME   	0:05    	1       	FILE      	"C:\Users\everett\Google Drive\02_phd\00_projects_major\02_swmm_calibration\models\fourteenmile\data\ObservedRainfall_new.dat"	S180      	MM   
S181            	VOLUME   	0:05    	1       	FILE      	"C:\Users\everett\Google Drive\02_phd\00_projects_major\02_swmm_calibration\models\fourteenmile\data\ObservedRainfall_new.dat"	S181      	MM   
S182            	VOLUME   	0:05    	1       	FILE      	"C:\Users\everett\Google Drive\02_phd\00_projects_major\02_swmm_calibration\models\fourteenmile\data\ObservedRainfall_new.dat"	S182      	MM   
S183            	VOLUME   	0:05    	1       	FILE      	"C:\Users\everett\Google Drive\02_phd\00_projects_major\02_swmm_calibration\models\fourteenmile\data\ObservedRainfall_new.dat"	S183      	MM   
S184            	VOLUME   	0:05    	1       	FILE      	"C:\Users\everett\Google Drive\02_phd\00_projects_major\02_swmm_calibration\models\fourteenmile\data\ObservedRainfall_new.dat"	S184      	MM   
S185            	VOLUME   	0:05    	1       	FILE      	"C:\Users\everett\Google Drive\02_phd\00_projects_major\02_swmm_calibration\models\fourteenmile\data\ObservedRainfall_new.dat"	S185      	MM   
S186            	VOLUME   	0:05    	1       	FILE      	"C:\Users\everett\Google Drive\02_phd\00_projects_major\02_swmm_calibration\models\fourteenmile\data\ObservedRainfall_new.dat"	S186      	MM   
S187            	VOLUME   	0:05    	1       	FILE      	"C:\Users\everett\Google Drive\02_phd\00_projects_major\02_swmm_calibration\models\fourteenmile\data\ObservedRainfall_new.dat"	S187      	MM   
S191            	VOLUME   	0:05    	1       	FILE      	"C:\Users\everett\Google Drive\02_phd\00_projects_major\02_swmm_calibration\models\fourteenmile\data\ObservedRainfall_new.dat"	S191      	MM   
S192            	VOLUME   	0:05    	1       	FILE      	"C:\Users\everett\Google Drive\02_phd\00_projects_major\02_swmm_calibration\models\fourteenmile\data\ObservedRainfall_new.dat"	S192      	MM   
S193            	VOLUME   	0:05    	1       	FILE      	"C:\Users\everett\Google Drive\02_phd\00_projects_major\02_swmm_calibration\models\fourteenmile\data\ObservedRainfall_new.dat"	S193      	MM   
S194            	VOLUME   	0:05    	1       	FILE      	"C:\Users\everett\Google Drive\02_phd\00_projects_major\02_swmm_calibration\models\fourteenmile\data\ObservedRainfall_new.dat"	S194      	MM   
S195            	VOLUME   	0:05    	1       	FILE      	"C:\Users\everett\Google Drive\02_phd\00_projects_major\02_swmm_calibration\models\fourteenmile\data\ObservedRainfall_new.dat"	S195      	MM   
S201            	VOLUME   	0:05    	1       	FILE      	"C:\Users\everett\Google Drive\02_phd\00_projects_major\02_swmm_calibration\models\fourteenmile\data\ObservedRainfall_new.dat"	S201      	MM   
S202            	VOLUME   	0:05    	1       	FILE      	"C:\Users\everett\Google Drive\02_phd\00_projects_major\02_swmm_calibration\models\fourteenmile\data\ObservedRainfall_new.dat"	S202      	MM   
S203            	VOLUME   	0:05    	1       	FILE      	"C:\Users\everett\Google Drive\02_phd\00_projects_major\02_swmm_calibration\models\fourteenmile\data\ObservedRainfall_new.dat"	S203      	MM   
S204            	VOLUME   	0:05    	1       	FILE      	"C:\Users\everett\Google Drive\02_phd\00_projects_major\02_swmm_calibration\models\fourteenmile\data\ObservedRainfall_new.dat"	S204      	MM   
S205            	VOLUME   	0:05    	1       	FILE      	"C:\Users\everett\Google Drive\02_phd\00_projects_major\02_swmm_calibration\models\fourteenmile\data\ObservedRainfall_new.dat"	S205      	MM   
S210            	VOLUME   	0:05    	1       	FILE      	"C:\Users\everett\Google Drive\02_phd\00_projects_major\02_swmm_calibration\models\fourteenmile\data\ObservedRainfall_new.dat"	S210      	MM   
S211            	VOLUME   	0:05    	1       	FILE      	"C:\Users\everett\Google Drive\02_phd\00_projects_major\02_swmm_calibration\models\fourteenmile\data\ObservedRainfall_new.dat"	S211      	MM   
S212            	VOLUME   	0:05    	1       	FILE      	"C:\Users\everett\Google Drive\02_phd\00_projects_major\02_swmm_calibration\models\fourteenmile\data\ObservedRainfall_new.dat"	S212      	MM   
S213            	VOLUME   	0:05    	1       	FILE      	"C:\Users\everett\Google Drive\02_phd\00_projects_major\02_swmm_calibration\models\fourteenmile\data\ObservedRainfall_new.dat"	S213      	MM   
S214            	VOLUME   	0:05    	1       	FILE      	"C:\Users\everett\Google Drive\02_phd\00_projects_major\02_swmm_calibration\models\fourteenmile\data\ObservedRainfall_new.dat"	S214      	MM   
S215            	VOLUME   	0:05    	1       	FILE      	"C:\Users\everett\Google Drive\02_phd\00_projects_major\02_swmm_calibration\models\fourteenmile\data\ObservedRainfall_new.dat"	S215      	MM   
S216            	VOLUME   	0:05    	1       	FILE      	"C:\Users\everett\Google Drive\02_phd\00_projects_major\02_swmm_calibration\models\fourteenmile\data\ObservedRainfall_new.dat"	S216      	MM   
S220            	VOLUME   	0:05    	1       	FILE      	"C:\Users\everett\Google Drive\02_phd\00_projects_major\02_swmm_calibration\models\fourteenmile\data\ObservedRainfall_new.dat"	S220      	MM   
S221            	VOLUME   	0:05    	1       	FILE      	"C:\Users\everett\Google Drive\02_phd\00_projects_major\02_swmm_calibration\models\fourteenmile\data\ObservedRainfall_new.dat"	S221      	MM   

[SUBCATCHMENTS]
;;Name          	Rain Gage       	Outlet          	Area    	%Imperv 	Width   	%Slope  	CurbLen 	SnowPack        
;;--------------	----------------	----------------	--------	--------	--------	--------	--------	----------------
S101            	S101            	J71.72631       	29.66   	10.304  	380.2564	0.012   	0       	                
S102            	S102            	J895.8482       	124.61  	14.392  	1832.5  	0.018   	0       	                
S103            	S103            	J1060.963       	51.96   	13.776  	731.831 	0.016   	0       	                
S104            	S104            	J2173.272       	39.8    	15.232  	552.7778	0.016   	0       	                
S105            	S105            	J2546.464       	61.1    	36.624  	565.7407	0.016   	0       	                
S106            	S106            	J3246.464       	76.74   	32.592  	1279    	0.012   	0       	                
S107            	S107            	J4248.377       	155.8   	4.256   	1038.6667	0.024   	0       	                
S108            	S108            	J7322.142       	26.52   	1.176   	228.6207	0.014   	0       	                
S109            	S109            	J718.547        	8.68    	8.232   	104.5783	0.01    	0       	                
S110            	S110            	J1200.117       	19.88   	14.168  	239.5181	0.016   	0       	                
S111            	S111            	J400.215        	10.63   	1.232   	236.2222	0.018   	0       	                
S112            	S112            	J1388.055       	106.47  	2.912   	819     	0.06    	0       	                
S113            	S113            	J113            	232.12  	1.12    	1547.4667	0.056   	0       	                
S151            	S151            	J151            	24.92   	30.688  	207.6667	0.04    	0       	                
S152            	S152            	J152            	25.32   	17.752  	177.0629	0.038   	0       	                
S153            	S153            	J60.22          	70.58   	28.672  	588.1667	0.008   	0       	                
S154_1          	S154_1          	J674.6          	32.8684 	17.192  	1442.2892	0.03    	0       	                
S154_2          	S154_2          	J1286.17        	86.8416 	17.192  	1442.2892	0.03    	0       	                
S155            	S155            	J3500.1         	11.27   	9.744   	197.7193	0.012   	0       	                
S156            	S156            	SU156           	26.18   	18.536  	436.3333	0.014   	0       	                
S157            	S157            	SU157           	39.34   	17.64   	578.5294	0.03    	0       	                
S158            	S158            	J4731.82        	9.48    	19.6    	210.6667	0.022   	0       	                
S159            	S159            	SU159           	20.41   	12.768  	340.1667	0.026   	0       	                
S160            	S160            	J5598.608       	69.57   	1.12    	615.6637	0.032   	0       	                
S161_1          	S161_1          	J300            	24.0478 	14.112  	1662.7778	0.02    	0       	                
S161_2          	S161_2          	J1002.010       	95.6722 	14.112  	1662.7778	0.02    	0       	                
S162            	S162            	J142.6492       	71.6    	13.552  	1101.5385	0.034   	0       	                
S163            	S163            	SU163           	58.33   	13.552  	897.3846	0.016   	0       	                
S164            	S164            	J3200           	11.65   	5.04    	208.0357	0.02    	0       	                
S165            	S165            	SU165           	23.84   	13.44   	366.7692	0.026   	0       	                
S166            	S166            	SU166           	71.04   	16.632  	1044.7059	0.042   	0       	                
S167            	S167            	J167            	26.36   	1.12    	219.6667	0.012   	0       	                
S171            	S171            	SU171           	34.01   	16.352  	523.2308	0.046   	0       	                
S172            	S172            	SU172           	15.04   	22.064  	221.1765	0.034   	0       	                
S180            	S180            	J749.08         	28.57   	2.128   	420.1471	0.02    	0       	                
S181            	S181            	J181            	15.96   	31.024  	192.2892	0.05    	0       	                
S182            	S182            	SU182           	22.52   	5.936   	229.7959	0.016   	0       	                
S183            	S183            	J2460.36        	7.59    	2.296   	168.6667	0.018   	0       	                
S184            	S184            	J3.2            	105.67  	1.12    	960.6364	0.032   	0       	                
S185            	S185            	J185            	43.32   	1.344   	393.8182	0.024   	0       	                
S186            	S186            	J186            	193.34  	1.344   	1288.9333	0.08    	0       	                
S187            	S187            	J7232.906       	1.93    	4.368   	32.1667 	0.036   	0       	                
S191            	S191            	SU191           	89.38   	16.688  	1686.4151	0.024   	0       	                
S192            	S192            	J1130.117       	3.43    	3.08    	57.1667 	0.026   	0       	                
S193            	S193            	SU193           	21.79   	16.632  	302.6389	0.024   	0       	                
S194            	S194            	J7232.906       	123.76  	2.072   	825.0667	0.036   	0       	                
S195            	S195            	SU220           	9.45    	16.576  	178.3019	0.034   	0       	                
S201            	S201            	SU201           	16.42   	13.44   	273.6667	0.052   	0       	                
S202            	S202            	SU202           	29.6    	8.736   	493.3333	0.024   	0       	                
S203            	S203            	J1700.117       	12.96   	11.2    	216     	0.02    	0       	                
S204            	S204            	J1361.769       	48.81   	1.736   	375.4615	0.012   	0       	                
S205            	S205            	J2266.899       	54.06   	1.288   	386.1429	0.024   	0       	                
S210            	S210            	J2604.897       	10.87   	1.624   	241.5556	0.028   	0       	                
S211            	S211            	SU211           	29.63   	10.808  	493.8333	0.026   	0       	                
S212            	S212            	J212            	8.58    	3.024   	81.7143 	0.02    	0       	                
S213            	S213            	J3              	11.91   	1.344   	104.4737	0.024   	0       	                
S214            	S214            	J1041.555       	6.37    	1.12    	76.747  	0.046   	0       	                
S215            	S215            	J3              	129.18  	1.12    	861.2   	0.044   	0       	                
S216            	S216            	J216            	267.14  	1.12    	1780.9333	0.056   	0       	                
S220            	S220            	SU220           	34.67   	14.784  	577.8333	0.02    	0       	                
S221            	S221            	SU220           	4.53    	1.12    	50.3333 	0.022   	0       	                

[SUBAREAS]
;;Subcatchment  	N-Imperv  	N-Perv    	S-Imperv  	S-Perv    	PctZero   	RouteTo   	PctRouted 
;;--------------	----------	----------	----------	----------	----------	----------	----------
S101            	0.015     	0.25      	2.5       	5         	25        	OUTLET    
S102            	0.015     	0.25      	2.5       	5         	25        	OUTLET    
S103            	0.015     	0.25      	2.5       	5         	25        	OUTLET    
S104            	0.015     	0.25      	2.5       	5         	25        	OUTLET    
S105            	0.015     	0.25      	2.5       	5         	25        	OUTLET    
S106            	0.015     	0.25      	2.5       	5         	25        	OUTLET    
S107            	0.015     	0.25      	2.5       	5         	25        	OUTLET    
S108            	0.015     	0.25      	2.5       	5         	25        	OUTLET    
S109            	0.015     	0.25      	2.5       	5         	25        	OUTLET    
S110            	0.015     	0.25      	2.5       	5         	25        	OUTLET    
S111            	0.015     	0.25      	2.5       	5         	25        	OUTLET    
S112            	0.015     	0.25      	2.5       	5         	25        	OUTLET    
S113            	0.015     	0.25      	2.5       	5         	25        	OUTLET    
S151            	0.015     	0.25      	2.5       	5         	25        	OUTLET    
S152            	0.015     	0.25      	2.5       	5         	25        	OUTLET    
S153            	0.015     	0.25      	2.5       	5         	25        	OUTLET    
S154_1          	0.015     	0.25      	2.5       	5         	25        	OUTLET    
S154_2          	0.015     	0.25      	2.5       	5         	25        	OUTLET    
S155            	0.015     	0.25      	2.5       	5         	25        	OUTLET    
S156            	0.015     	0.25      	2.5       	5         	25        	OUTLET    
S157            	0.015     	0.25      	2.5       	5         	25        	OUTLET    
S158            	0.015     	0.25      	2.5       	5         	25        	OUTLET    
S159            	0.015     	0.25      	2.5       	5         	25        	OUTLET    
S160            	0.015     	0.25      	2.5       	5         	25        	OUTLET    
S161_1          	0.015     	0.25      	2.5       	5         	25        	OUTLET    
S161_2          	0.015     	0.25      	2.5       	5         	25        	OUTLET    
S162            	0.015     	0.25      	2.5       	5         	25        	OUTLET    
S163            	0.015     	0.25      	2.5       	5         	25        	OUTLET    
S164            	0.015     	0.25      	2.5       	5         	25        	OUTLET    
S165            	0.015     	0.25      	2.5       	5         	25        	OUTLET    
S166            	0.015     	0.25      	2.5       	5         	25        	OUTLET    
S167            	0.015     	0.25      	2.5       	5         	25        	OUTLET    
S171            	0.015     	0.25      	2.5       	5         	25        	OUTLET    
S172            	0.015     	0.25      	2.5       	5         	25        	OUTLET    
S180            	0.015     	0.25      	2.5       	5         	25        	OUTLET    
S181            	0.015     	0.25      	2.5       	5         	25        	OUTLET    
S182            	0.015     	0.25      	2.5       	5         	25        	OUTLET    
S183            	0.015     	0.25      	2.5       	5         	25        	OUTLET    
S184            	0.015     	0.25      	2.5       	5         	25        	OUTLET    
S185            	0.015     	0.25      	2.5       	5         	25        	OUTLET    
S186            	0.015     	0.25      	2.5       	5         	25        	OUTLET    
S187            	0.015     	0.25      	2.5       	5         	25        	OUTLET    
S191            	0.015     	0.25      	2.5       	5         	25        	OUTLET    
S192            	0.015     	0.25      	2.5       	5         	25        	OUTLET    
S193            	0.015     	0.25      	2.5       	5         	25        	OUTLET    
S194            	0.015     	0.25      	2.5       	5         	25        	OUTLET    
S195            	0.015     	0.25      	2.5       	5         	25        	OUTLET    
S201            	0.015     	0.25      	2.5       	5         	25        	OUTLET    
S202            	0.015     	0.25      	2.5       	5         	25        	OUTLET    
S203            	0.015     	0.25      	2.5       	5         	25        	OUTLET    
S204            	0.015     	0.25      	2.5       	5         	25        	OUTLET    
S205            	0.015     	0.25      	2.5       	5         	25        	OUTLET    
S210            	0.015     	0.25      	2.5       	5         	25        	OUTLET    
S211            	0.015     	0.25      	2.5       	5         	25        	OUTLET    
S212            	0.015     	0.25      	2.5       	5         	25        	OUTLET    
S213            	0.015     	0.25      	2.5       	5         	25        	OUTLET    
S214            	0.015     	0.25      	2.5       	5         	25        	OUTLET    
S215            	0.015     	0.25      	2.5       	5         	25        	OUTLET    
S216            	0.015     	0.25      	2.5       	5         	25        	OUTLET    
S220            	0.015     	0.25      	2.5       	5         	25        	OUTLET    
S221            	0.015     	0.25      	2.5       	5         	25        	OUTLET    

[INFILTRATION]
;;Subcatchment  	Suction   	Ksat      	IMD       
;;--------------	----------	----------	----------
S101            	474.45    	0.9       	0.05      
S102            	474.45    	0.9       	0.05      
S103            	474.45    	0.9       	0.05      
S104            	474.45    	0.9       	0.05      
S105            	474.45    	0.9       	0.05      
S106            	474.45    	0.9       	0.05      
S107            	474.45    	0.9       	0.05      
S108            	474.45    	0.9       	0.05      
S109            	474.45    	0.9       	0.05      
S110            	474.45    	0.9       	0.05      
S111            	474.45    	0.9       	0.05      
S112            	474.45    	0.9       	0.05      
S113            	474.45    	0.9       	0.05      
S151            	474.45    	0.9       	0.05      
S152            	474.45    	0.9       	0.05      
S153            	474.45    	0.9       	0.05      
S154_1          	474.45    	0.9       	0.05      
S154_2          	474.45    	0.9       	0.05      
S155            	474.45    	0.9       	0.05      
S156            	474.45    	0.9       	0.05      
S157            	474.45    	0.9       	0.05      
S158            	474.45    	0.9       	0.05      
S159            	474.45    	0.9       	0.05      
S160            	474.45    	0.9       	0.05      
S161_1          	474.45    	0.9       	0.05      
S161_2          	474.45    	0.9       	0.05      
S162            	474.45    	0.9       	0.05      
S163            	474.45    	0.9       	0.05      
S164            	474.45    	0.9       	0.05      
S165            	474.45    	0.9       	0.05      
S166            	474.45    	0.9       	0.05      
S167            	474.45    	0.9       	0.05      
S171            	474.45    	0.9       	0.05      
S172            	474.45    	0.9       	0.05      
S180            	474.45    	0.9       	0.05      
S181            	474.45    	0.9       	0.05      
S182            	474.45    	0.9       	0.05      
S183            	474.45    	0.9       	0.05      
S184            	474.45    	0.9       	0.05      
S185            	474.45    	0.9       	0.05      
S186            	474.45    	0.9       	0.05      
S187            	474.45    	0.9       	0.05      
S191            	474.45    	0.9       	0.05      
S192            	474.45    	0.9       	0.05      
S193            	474.45    	0.9       	0.05      
S194            	474.45    	0.9       	0.05      
S195            	474.45    	0.9       	0.05      
S201            	474.45    	0.9       	0.05      
S202            	474.45    	0.9       	0.05      
S203            	474.45    	0.9       	0.05      
S204            	474.45    	0.9       	0.05      
S205            	474.45    	0.9       	0.05      
S210            	474.45    	0.9       	0.05      
S211            	474.45    	0.9       	0.05      
S212            	474.45    	0.9       	0.05      
S213            	474.45    	0.9       	0.05      
S214            	474.45    	0.9       	0.05      
S215            	474.45    	0.9       	0.05      
S216            	474.45    	0.9       	0.05      
S220            	474.45    	0.9       	0.05      
S221            	474.45    	0.9       	0.05      

[JUNCTIONS]
;;Name          	Elevation 	MaxDepth  	InitDepth 	SurDepth  	Aponded   
;;--------------	----------	----------	----------	----------	----------
21              	104.217   	10.52     	0         	0         	0         
22              	131.6     	6.7       	0         	0         	0         
23              	126.76    	9.78      	0         	0         	0         
25              	118.429   	10.311    	0         	0         	0         
J10.67          	102.5     	4         	0         	0         	0         
J100.17         	119.57    	10.68     	0         	0         	0         
J1002.010       	118       	6.97      	0         	0         	0         
J1002.010_2     	118       	6.97      	0         	0         	0         
J1012.195       	83.33     	4.093     	0         	0         	0         