[TITLE]
;;Project Title/Notes
Scenario Run: BASE

[OPTIONS]
;;Option            	Value
FLOW_UNITS	CMS
INFILTRATION	MODIFIED_GREEN_AMPT
FLOW_ROUTING	KINWAVE
LINK_OFFSETS	DEPTH
MIN_SLOPE	0
ALLOW_PONDING	NO
SKIP_STEADY_STATE	NO

START_DATE	01/01/2000
START_TIME	01:00:00
REPORT_START_DATE	01/01/2000
REPORT_START_TIME	01:00:00
END_DATE	01/01/2000
END_TIME	23:00:00
SWEEP_START	01/01
SWEEP_END	12/31
DRY_DAYS	5
REPORT_STEP	00:05:00
WET_STEP	00:15:00
DRY_STEP	01:00:00
ROUTING_STEP	0:01:00
RULE_STEP	00:00:00

INERTIAL_DAMPING	PARTIAL
NORMAL_FLOW_LIMITED	BOTH
FORCE_MAIN_EQUATION	H-W
VARIABLE_STEP	0.75
LENGTHENING_STEP	0
MIN_SURFAREA	12.566
MAX_TRIALS	8
HEAD_TOLERANCE	0.005
SYS_FLOW_TOL	5
LAT_FLOW_TOL	5
MINIMUM_STEP	0.5
THREADS	1

[EVAPORATION]
;;Data Source   	Parameters
;;--------------	----------------
CONSTANT	0.0
DRY_ONLY	NO

[RAINGAGES]
;;Name          	Format   	Interval	SCF     	Source    
;;--------------	---------	------	------	----------
rg_1	VOLUME	1:00	1	FILE	"C:\Users\everett\Google Drive\02_phd\00_projects_major\02_swmm_calibration\data\swmm\example\data\example_rg.dat"	rg_1	MM

[SUBCATCHMENTS]
;;Name          	Rain Gage       	Outlet          	Area    	%Imperv 	Width   	%Slope  	CurbLen 	SnowPack        
;;--------------	----------------	----------------	--------	--------	--------	--------	--------	----------------
S1	rg_1	J1	4	63.8512	465.6044	0.46945	0	
S2	rg_1	J2	400	3.3274	114.0419	0.11067	0	
S3	rg_1	J3	4	136.0939	442.1056	0.50268	0	

[SUBAREAS]
;;Subcatchment  	N-Imperv  	N-Perv    	S-Imperv  	S-Perv    	PctZero   	RouteTo   	PctRouted 
;;--------------	----------	----------	----------	----------	----------	----------	----------
S1	0.0074662	0.16317	0.035377	0.063247	25	OUTLET	
S2	0.012714	0.064567	0.089709	0.018379	25	OUTLET	
S3	0.013735	0.08843	0.011846	0.080446	25	OUTLET	

[INFILTRATION]
;;Subcatchment  	Suction   	Ksat      	IMD       
;;--------------	----------	----------	----------
S1	2.7485	0.13331	0.59886
S2	2.0181	0.71254	0.44932
S3	3.3922	0.74423	0.17043

[LID_CONTROLS]
;;Name          	Type/Layer	Parameters
;;--------------	----------	----------
rb              	RB
rb              	STORAGE   	1000      	0.75      	0.5       	0         
rb              	DRAIN     	0         	0.5       	6         	6         	0         	0         	          

[LID_USAGE]
;;Subcatchment  	LID Process     	Number 	Area      	Width     	InitSat   	FromImp   	ToPerv    	RptFile                 	DrainTo         	FromPerv  
;;--------------	----------------	-------	----------	----------	----------	----------	----------	------------------------	----------------	----------
S3	rb	20	1	0	0	30	0	*	*	0

[JUNCTIONS]
;;Name          	Elevation 	MaxDepth  	InitDepth 	SurDepth  	Aponded   
;;--------------	----------	----------	----------	----------	----------
J3	93	0	0	0	0
J1	96	0	0	0	0
J4	88	0	0	0	0
J2	90	0	0	0	0

[OUTFALLS]
;;Name          	Elevation 	Type      	Stage Data      	Gated   	Route To        
;;--------------	----------	----------	----------------	--------	----------------
OUT1	85	FREE		NO	

[STORAGE]
;;Name          	Elev.   	MaxDepth  	InitDepth 	Shape     	Curve Name/Params           	N/A     	Fevap   	Psi     	Ksat    	IMD     
;;--------------	--------	----------	-----------	----------	----------------------------	--------	--------	        	--------	--------
STO1	86	0	0	FUNCTIONAL	1000      0         0	0	0			

[CONDUITS]
;;Name          	From Node       	To Node         	Length    	Roughness 	InOffset  	OutOffset 	InitFlow  	MaxFlow   
;;--------------	----------------	----------------	----------	----------	----------	----------	----------	----------
C3	J3	J4	400	0.017625	0	0	0	0
C4	J4	STO1	400	0.012717	0	0	0	0
C2	J2	J4	400	0.017166	0	0	0	0
C1	J1	J2	400	0.002506	0	0	0	0
C5	STO1	OUT1	400	0.015809	0	0	0	0

[XSECTIONS]
;;Link          	Shape       	Geom1           	Geom2     	Geom3     	Geom4     	Barrels   	Culvert   
;;--------------	------------	----------------	----------	----------	----------	----------	----------
C3	CIRCULAR	1.5	0	0	0	1	
C4	CIRCULAR	2	0	0	0	1	
C2	CIRCULAR	1	0	0	0	1	
C1	CIRCULAR	1	0	0	0	1	
C5	CIRCULAR	1	0	0	0	1	

[TIMESERIES]
;;Name          	Date      	Time      	Value     
;;--------------	----------	----------	----------
TS1		0	0
TS1		1	0.5
TS1		2	1
TS1		3	0.75
TS1		4	0.5
TS1		5	0.25
TS1		6	0

[REPORT]
;;Reporting Options
SUBCATCHMENTS	ALL
NODES	ALL
LINKS	ALL

[TAGS]

[MAP]
DIMENSIONS	0.000	0.000	10000.000	10000.000
Units     	None

[COORDINATES]
;;Node          	X-Coord           	Y-Coord           
;;--------------	------------------	------------------
J3	1387.597	7100.775
J1	4395.349	7069.767
J4	1387.597	3457.364
J2	4395.349	3457.364
OUT1	-2023.256	3457.364
STO1	-530.217	3454.96

[VERTICES]
;;Link          	X-Coord           	Y-Coord           
;;--------------	------------------	------------------

[Polygons]
;;Subcatchment  	X-Coord           	Y-Coord           
;;--------------	------------------	------------------
S1	1844.961	6472.868
S1	3937.984	6472.868
S1	3937.984	8069.767
S1	1844.961	8069.767
S2	1837.209	4139.535
S2	3945.736	4139.535
S2	3945.736	5720.93
S2	1837.209	5720.93
S3	-1155.039	6496.124
S3	953.488	6496.124
S3	953.488	8077.519
S3	-1155.039	8077.519

[SYMBOLS]
;;Gage          	X-Coord           	Y-Coord           
;;--------------	------------------	------------------
rg_1	1264.27	8191.885

