[TITLE]
;;Project Title/Notes
Scenario Run: BASE

[OPTIONS]
;;Option            	Value
FLOW_UNITS          	CMS
INFILTRATION        	MODIFIED_GREEN_AMPT
FLOW_ROUTING        	KINWAVE
LINK_OFFSETS        	DEPTH
MIN_SLOPE           	0
ALLOW_PONDING       	NO
SKIP_STEADY_STATE   	NO

START_DATE          	01/01/2000
START_TIME          	01:00:00
REPORT_START_DATE   	01/01/2000
REPORT_START_TIME   	01:00:00
END_DATE            	01/01/2000
END_TIME            	23:00:00
SWEEP_START         	01/01
SWEEP_END           	12/31
DRY_DAYS            	5
REPORT_STEP         	00:05:00
WET_STEP            	00:15:00
DRY_STEP            	01:00:00
ROUTING_STEP        	0:01:00 
RULE_STEP           	00:00:00

INERTIAL_DAMPING    	PARTIAL
NORMAL_FLOW_LIMITED 	BOTH
FORCE_MAIN_EQUATION 	H-W
VARIABLE_STEP       	0.75
LENGTHENING_STEP    	0
MIN_SURFAREA        	12.566
MAX_TRIALS          	8
HEAD_TOLERANCE      	0.005
SYS_FLOW_TOL        	5
LAT_FLOW_TOL        	5
MINIMUM_STEP        	0.5
THREADS             	1

[EVAPORATION]
;;Data Source   	Parameters
;;--------------	----------------
CONSTANT        	0.0
DRY_ONLY        	NO

[RAINGAGES]
;;Name          	Format   	Interval	SCF     	Source    
;;--------------	---------	------	------	----------
rg_1            	CUMULATIVE	1:00    	1       	FILE      	"C:\Users\everett\Google Drive\02_phd\00_projects_major\02_swmm_calibration\data\swmm\example\data\example_rg.dat"	rg_1      	MM   

[SUBCATCHMENTS]
;;Name          	Rain Gage       	Outlet          	Area    	%Imperv 	Width   	%Slope  	CurbLen 	SnowPack        
;;--------------	----------------	----------------	--------	--------	--------	--------	--------	----------------
S1              	rg_1            	J1              	4       	63.8512 	465.6044	0.46945 	0       	                
S2              	rg_1            	J2              	400     	3.3274  	114.0419	0.11067 	0       	                
S3              	rg_1            	J3              	4       	136.0939	442.1056	0.50268 	0       	                

[SUBAREAS]
;;Subcatchment  	N-Imperv  	N-Perv    	S-Imperv  	S-Perv    	PctZero   	RouteTo   	PctRouted 
;;--------------	----------	----------	----------	----------	----------	----------	----------
S1              	0.0074662 	0.16317   	0.035377  	0.063247  	25        	OUTLET    
S2              	0.012714  	0.064567  	0.089709  	0.018379  	25        	OUTLET    
S3              	0.013735  	0.08843   	0.011846  	0.080446  	25        	OUTLET    

[INFILTRATION]
;;Subcatchment  	Suction   	Ksat      	IMD       
;;--------------	----------	----------	----------
S1              	2.7485    	0.13331   	0.59886   
S2              	2.0181    	0.71254   	0.44932   
S3              	3.3922    	0.74423   	0.17043   

[LID_CONTROLS]
;;Name          	Type/Layer	Parameters
;;--------------	----------	----------
rb              	RB
rb              	STORAGE   	1000      	0.75      	0.5       	0         
rb              	DRAIN     	0         	0.5       	6         	6         	0         	0         	          

[LID_USAGE]
;;Subcatchment  	LID Process     	Number 	Area      	Width     	InitSat   	FromImp   	ToPerv    	RptFile                 	DrainTo         	FromPerv  
;;--------------	----------------	-------	----------	----------	----------	----------	----------	------------------------	----------------	----------
S3              	rb              	20     	1         	0         	0         	30        	0         	*                       	*               	0               

[JUNCTIONS]
;;Name          	Elevation 	MaxDepth  	InitDepth 	SurDepth  	Aponded   
;;--------------	----------	----------	----------	----------	----------
J3              	93        	0         	0         	0         	0         
J1              	96        	0         	0         	0         	0         
J4              	88        	0         	0         	0         	0         
J2              	90        	0         	0         	0         	0         

[OUTFALLS]
;;Name          	Elevation 	Type      	Stage Data      	Gated   	Route To        
;;--------------	----------	----------	----------------	--------	----------------
OUT1            	85        	FREE      	                	NO      	                

[STORAGE]
;;Name          	Elev.   	MaxDepth  	InitDepth 	Shape     	Curve Name/Params           	N/A     	Fevap   	Psi     	Ksat    	IMD     
;;--------------	--------	----------	-----------	----------	----------------------------	--------	--------	        	--------	--------
STO1            	86      	0         	0         	FUNCTIONAL	1000      0         0       	0       	0       

[CONDUITS]
;;Name          	From Node       	To Node         	Length    	Roughness 	InOffset  	OutOffset 	InitFlow  	MaxFlow   
;;--------------	----------------	----------------	----------	----------	----------	----------	----------	----------
C3              	J3              	J4              	400       	0.017625  	0         	0         	0         	0         
C4              	J4              	STO1            	400       	0.012717  	0         	0         	0         	0         
C2              	J2              	J4              	400       	0.017166  	0         	0         	0         	0         
C1              	J1              	J2              	400       	0.002506  	0         	0         	0         	0         
C5              	STO1            	OUT1            	400       	0.015809  	0         	0         	0         	0         

[XSECTIONS]
;;Link          	Shape       	Geom1           	Geom2     	Geom3     	Geom4     	Barrels   	Culvert   
;;--------------	------------	----------------	----------	----------	----------	----------	----------
C3              	CIRCULAR    	1.5             	0         	0         	0         	1         	          
C4              	CIRCULAR    	2               	0         	0         	0         	1         	          
C2              	CIRCULAR    	1               	0         	0         	0         	1         	          
C1              	CIRCULAR    	1               	0         	0         	0         	1         	          
C5              	CIRCULAR    	1               	0         	0         	0         	1         	          

[TIMESERIES]
;;Name          	Date      	Time      	Value     
;;--------------	----------	----------	----------
TS1             	          	0         	0         
TS1             	          	0.1       	0.088072  
TS1             	          	0.2       	0.176144  
TS1             	          	0.3       	0.26596   
TS1             	          	0.4       	0.355776  
TS1             	          	0.5       	0.447336  
TS1             	          	0.6       	0.538896  
TS1             	          	0.7       	0.6322    
TS1             	          	0.8       	0.725504  
TS1             	          	0.9       	0.820552  
TS1             	          	1         	0.9156    
TS1             	          	1.1       	1.012392  
TS1             	          	1.2       	1.109184  
TS1             	          	1.3       	1.20772   
TS1             	          	1.4       	1.306256  
TS1             	          	1.5       	1.406536  
TS1             	          	1.6       	1.506816  
TS1             	          	1.7       	1.60884   
TS1             	          	1.8       	1.710864  
TS1             	          	1.9       	1.814632  
TS1             	          	2         	1.9184    
TS1             	          	2.1       	2.023912  
TS1             	          	2.2       	2.129424  
TS1             	          	2.3       	2.23668   
TS1             	          	2.4       	2.343936  
TS1             	          	2.5       	2.452936  
TS1             	          	2.6       	2.561936  
TS1             	          	2.7       	2.67268   
TS1             	          	2.8       	2.783424  
TS1             	          	2.9       	2.895912  
TS1             	          	3         	3.0084    
TS1             	          	3.1       	3.122632  
TS1             	          	3.2       	3.236864  
TS1             	          	3.3       	3.35284   
TS1             	          	3.4       	3.468816  
TS1             	          	3.5       	3.586536  
TS1             	          	3.6       	3.704256  
TS1             	          	3.7       	3.82372   
TS1             	          	3.8       	3.943184  
TS1             	          	3.9       	4.064392  
TS1             	          	4         	4.1856    
TS1             	          	4.1       	4.308552  
TS1             	          	4.2       	4.433248  
TS1             	          	4.3       	4.559688  
TS1             	          	4.4       	4.687872  
TS1             	          	4.5       	4.8178    
TS1             	          	4.6       	4.949472  
TS1             	          	4.7       	5.082888  
TS1             	          	4.8       	5.218048  
TS1             	          	4.9       	5.354952  
TS1             	          	5         	5.4936    
TS1             	          	5.1       	5.633992  
TS1             	          	5.2       	5.776128  
TS1             	          	5.3       	5.920008  
TS1             	          	5.4       	6.065632  
TS1             	          	5.5       	6.213     
TS1             	          	5.6       	6.362112  
TS1             	          	5.7       	6.512968  
TS1             	          	5.8       	6.665568  
TS1             	          	5.9       	6.819912  
TS1             	          	6         	6.976     
TS1             	          	6.1       	7.133832  
TS1             	          	6.2       	7.293408  
TS1             	          	6.3       	7.454728  
TS1             	          	6.4       	7.617792  
TS1             	          	6.5       	7.7826    
TS1             	          	6.6       	7.949152  
TS1             	          	6.7       	8.117448  
TS1             	          	6.8       	8.287488  
TS1             	          	6.9       	8.459272  
TS1             	          	7         	8.6328    
TS1             	          	7.1       	8.808072  
TS1             	          	7.2       	8.985088  
TS1             	          	7.3       	9.163848  
TS1             	          	7.4       	9.344352  
TS1             	          	7.5       	9.5266    
TS1             	          	7.6       	9.710592  
TS1             	          	7.7       	9.896328  
TS1             	          	7.8       	10.083808 
TS1             	          	7.9       	10.273032 
TS1             	          	8         	10.464    
TS1             	          	8.1       	10.6602   
TS1             	          	8.2       	10.86512  
TS1             	          	8.3       	11.07876  
TS1             	          	8.4       	11.30112  
TS1             	          	8.5       	11.5322   
TS1             	          	8.6       	11.772    
TS1             	          	8.7       	12.02052  
TS1             	          	8.8       	12.27776  
TS1             	          	8.9       	12.54372  
TS1             	          	9         	12.8184   
TS1             	          	9.1       	13.09744  
TS1             	          	9.2       	13.37648  
TS1             	          	9.3       	13.65552  
TS1             	          	9.4       	13.93456  
TS1             	          	9.5       	14.2136   
TS1             	          	9.6       	14.499616 
TS1             	          	9.7       	14.799584 
TS1             	          	9.8       	15.113504 
TS1             	          	9.9       	15.441376 
TS1             	          	10        	15.7832   
TS1             	          	10.1      	16.142464 
TS1             	          	10.2      	16.522656 
TS1             	          	10.3      	16.923776 
TS1             	          	10.4      	17.345824 
TS1             	          	10.5      	17.7888   
TS1             	          	10.6      	18.25968  
TS1             	          	10.7      	18.76544  
TS1             	          	10.8      	19.30608  
TS1             	          	10.9      	19.8816   
TS1             	          	11        	20.492    
TS1             	          	11.1      	21.161696 
TS1             	          	11.2      	21.915104 
TS1             	          	11.3      	22.752224 
TS1             	          	11.4      	23.673056 
TS1             	          	11.5      	24.6776   
TS1             	          	11.6      	26.756448 
TS1             	          	11.7      	30.900192 
TS1             	          	11.8      	37.564888 
TS1             	          	11.9      	49.517392 
TS1             	          	12        	57.8136   
TS1             	          	12.1      	59.466912 
TS1             	          	12.2      	60.921408 
TS1             	          	12.3      	62.177088 
TS1             	          	12.4      	63.233952 
TS1             	          	12.5      	64.092    
TS1             	          	12.6      	64.827968 
TS1             	          	12.7      	65.518592 
TS1             	          	12.8      	66.163872 
TS1             	          	12.9      	66.763808 
TS1             	          	13        	67.3184   
TS1             	          	13.1      	67.838112 
TS1             	          	13.2      	68.333408 
TS1             	          	13.3      	68.804288 
TS1             	          	13.4      	69.250752 
TS1             	          	13.5      	69.6728   
TS1             	          	13.6      	70.07392  
TS1             	          	13.7      	70.4576   
TS1             	          	13.8      	70.82384  
TS1             	          	13.9      	71.17264  
TS1             	          	14        	71.504    
TS1             	          	14.1      	71.824024 
TS1             	          	14.2      	72.137072 
TS1             	          	14.3      	72.444888 
TS1             	          	14.4      	72.745728 
TS1             	          	14.5      	73.041336 
TS1             	          	14.6      	73.329968 
TS1             	          	14.7      	73.613368 
TS1             	          	14.8      	73.889792 
TS1             	          	14.9      	74.160984 
TS1             	          	15        	74.4252   
TS1             	          	15.1      	74.684184 
TS1             	          	15.2      	74.936192 
TS1             	          	15.3      	75.182968 
TS1             	          	15.4      	75.422768 
TS1             	          	15.5      	75.657336 
TS1             	          	15.6      	75.884928 
TS1             	          	15.7      	76.107288 
TS1             	          	15.8      	76.322672 
TS1             	          	15.9      	76.532824 
TS1             	          	16        	76.736    
TS1             	          	16.1      	76.935688 
TS1             	          	16.2      	77.13276  
TS1             	          	16.3      	77.328088 
TS1             	          	16.4      	77.5208   
TS1             	          	16.5      	77.711768 
TS1             	          	16.6      	77.90012  
TS1             	          	16.7      	78.086728 
TS1             	          	16.8      	78.27072  
TS1             	          	16.9      	78.452968 
TS1             	          	17        	78.6326   
TS1             	          	17.1      	78.810488 
TS1             	          	17.2      	78.98576  
TS1             	          	17.3      	79.159288 
TS1             	          	17.4      	79.3302   
TS1             	          	17.5      	79.499368 
TS1             	          	17.6      	79.66592  
TS1             	          	17.7      	79.830728 
TS1             	          	17.8      	79.99292  
TS1             	          	17.9      	80.153368 
TS1             	          	18        	80.3112   
TS1             	          	18.1      	80.467288 
TS1             	          	18.2      	80.62076  
TS1             	          	18.3      	80.772488 
TS1             	          	18.4      	80.9216   
TS1             	          	18.5      	81.068968 
TS1             	          	18.6      	81.21372  
TS1             	          	18.7      	81.356728 
TS1             	          	18.8      	81.49712  
TS1             	          	18.9      	81.635768 
TS1             	          	19        	81.7718   
TS1             	          	19.1      	81.906088 
TS1             	          	19.2      	82.03776  
TS1             	          	19.3      	82.167688 
TS1             	          	19.4      	82.295    
TS1             	          	19.5      	82.420568 
TS1             	          	19.6      	82.54352  
TS1             	          	19.7      	82.664728 
TS1             	          	19.8      	82.78332  
TS1             	          	19.9      	82.900168 
TS1             	          	20        	83.0144   
TS1             	          	20.1      	83.12776  
TS1             	          	20.2      	83.240248 
TS1             	          	20.3      	83.352736 
TS1             	          	20.4      	83.464352 
TS1             	          	20.5      	83.575968 
TS1             	          	20.6      	83.686712 
TS1             	          	20.7      	83.797456 
TS1             	          	20.8      	83.907328 
TS1             	          	20.9      	84.0172   
TS1             	          	21        	84.1262   
TS1             	          	21.1      	84.2352   
TS1             	          	21.2      	84.343328 
TS1             	          	21.3      	84.451456 
TS1             	          	21.4      	84.558712 
TS1             	          	21.5      	84.665968 
TS1             	          	21.6      	84.772352 
TS1             	          	21.7      	84.878736 
TS1             	          	21.8      	84.984248 
TS1             	          	21.9      	85.08976  
TS1             	          	22        	85.1944   
TS1             	          	22.1      	85.29904  
TS1             	          	22.2      	85.402808 
TS1             	          	22.3      	85.506576 
TS1             	          	22.4      	85.609472 
TS1             	          	22.5      	85.712368 
TS1             	          	22.6      	85.814392 
TS1             	          	22.7      	85.916416 
TS1             	          	22.8      	86.017568 
TS1             	          	22.9      	86.11872  
TS1             	          	23        	86.219    
TS1             	          	23.1      	86.31928  
TS1             	          	23.2      	86.418688 
TS1             	          	23.3      	86.518096 
TS1             	          	23.4      	86.616632 
TS1             	          	23.5      	86.715168 
TS1             	          	23.6      	86.812832 
TS1             	          	23.7      	86.910496 
TS1             	          	23.8      	87.007288 
TS1             	          	23.9      	87.10408  
TS1             	          	24        	87.2      

[REPORT]
;;Reporting Options
SUBCATCHMENTS	ALL
NODES	ALL
LINKS	ALL

[TAGS]

[MAP]
DIMENSIONS	0.000	0.000	10000.000	10000.000
Units     	None

[COORDINATES]
;;Node          	X-Coord           	Y-Coord           
;;--------------	------------------	------------------
J3              	1387.597          	7100.775          
J1              	4395.349          	7069.767          
J4              	1387.597          	3457.364          
J2              	4395.349          	3457.364          
OUT1            	-2023.256         	3457.364          
STO1            	-530.217          	3454.960          

[VERTICES]
;;Link          	X-Coord           	Y-Coord           
;;--------------	------------------	------------------

[Polygons]
;;Subcatchment  	X-Coord           	Y-Coord           
;;--------------	------------------	------------------
S1              	1844.961          	6472.868          
S1              	3937.984          	6472.868          
S1              	3937.984          	8069.767          
S1              	1844.961          	8069.767          
S2              	1837.209          	4139.535          
S2              	3945.736          	4139.535          
S2              	3945.736          	5720.930          
S2              	1837.209          	5720.930          
S3              	-1155.039         	6496.124          
S3              	953.488           	6496.124          
S3              	953.488           	8077.519          
S3              	-1155.039         	8077.519          

[SYMBOLS]
;;Gage          	X-Coord           	Y-Coord           
;;--------------	------------------	------------------
rg_1            	1264.270          	8191.885          

